<?xml version="1.0"?>
<routes>
	<vType accel="15.0" decel="5.0" id="Car" lenghth="2.0" maxSpeed="100.0" sigma="0.0" />
		<!-- sigma is the parameter of random behaviors, sigma=0 means deterministic -->
	<route id="route0" edges="1to3 3to6 6to7" />
	<route id="route1" edges="5to6 6to7" />
	<route id="route2" edges="8to6 6to3 3to1" />
	<vehicle depart="1" id="veh0" route="route0" type="Car" />
	<vehicle depart="5" id="veh1" route="route1" type="Car" />
	<vehicle depart="8" id="veh2" route="route2" type="Car" />
</routes>