<?xml version="1.0"?>
<nodes>
	<node id="1" x="-200.0" y="0.0" />
	<node id="2" x="240.0" y="0.0" />
	<node id="3" x="+500.0" y="0.0" />
	<node id="4" x="-200.0" y="1.0" />
	<node id="5" x="+500.0" y="1.0" />			<!--MODIFY THE STREET I have modified -->
</nodes>